**$ENCRYPTED_LIB
**$INTERFACE
*$
* TPS54672
*****************************************************************************
* (C) Copyright 2013 Texas Instruments Incorporated. All rights reserved.                                            
*****************************************************************************
** This model is designed as an aid for customers of Texas Instruments.
** TI and its licensors and suppliers make no warranties, either expressed
** or implied, with respect to this model, including the warranties of 
** merchantability or fitness for a particular purpose.  The model is
** provided solely on an "as is" basis.  The entire risk as to its quality
** and performance is with the customer
*****************************************************************************
*
* This model is subject to change without notice. Texas Instruments
* Incorporated is not responsible for updating this model.
*
*****************************************************************************
*
** Released by: WEBENCH Design Center, Texas Instruments Inc.
* Part: TPS54672
* Date: 13JUN2013
* Model Type: AVERAGE
* Simulator: PSPICE
* Simulator Version: 16.2.0.p001
* EVM Order Number: TPS54672EVM-222
* EVM Users Guide: SLVU076 -November 2002
* Datasheet: SLVS397C - JULY 2001 - REVISED FEBRUARY 2005
*
* Model Version: Final 1.00
*
*****************************************************************************
*
* Updates:
*
* Final 1.00
* Release to Web.
*
*****************************************************************************
.SUBCKT TPS54672_AVG AGND COMP PGND PH REFIN VIN VSENSE  PARAMS: FS=700k L=1u
$CDNENCSTART
eee8c5c7a2bc4b01f045f303678664e7916da0bae22e8cb0bba041dd67c69ce448ea70148a9ac1670c8926c1ac5057c8ccfcd77bf87ca9dc9ae02d340d146cdb
fc8c4fb92a71ec0c04e9f480c203ca51108e528828f8c6706d9e274bf62facfafd5e213b948487b050b32b9ebdb26877e4fa66b8236683a737c87af26437fcd1
e0bee0f3fadd672474114ea99abc715d3614e574bd3414aaec55ec3d6b81ba30478a87bc5b8e6cf9ed857e222a29377bbb3d9bcfea5868d6df34c2f4801efcce
93d3808648446fd7c702d572f128fccc9e38b73a163127acb1ad1c111ef6d5b88c51ff768029dbe124fdfd9bb2e10b07612cadd6d8bf7aabecbcab3cc68170d0
a480b779236ed620c38aa6dac936016a599bf13f0371d5b418581edb84aff664ce5ec34e6f8ad1cab3debcf8e288c96eb5f1c17ee79563039ae02d340d146cdb
a480b779236ed620c5ca77132ef4dbda706b807646b80371323073213f1e2fd7c6224b44f9021ff866eaeb9fc4cc8ae14ee62c3d2a89a19b314f5b8ec2462050
1f809493055173d8b5f1c17ee79563033bd7e4b9834b665f1b021646719704d5d1032bf8086203cff0f36c3bb790f51d5798c902c412811ee96cece447c87331
7ac8891e009d74fdeeb6d5d8ff18887b41bd5cdca80eee63b277fc8e549da069f39fd8a863b666ac43fe2b9debb21178710f626c2faf14a69ae02d340d146cdb
19d3e057149a9eaaaedd72c0e845bd13706b807646b80371eeb4e309e96d52ab64e58292f205dd8b66eaeb9fc4cc8ae1624ed497db81ca5d93ea23447b6ae3e2
9e86809461c91d6e8675a01b2db95be7d8390d8c098ed9e73e9362c7ec07df9afe57904a74c0b255af0c04363af13ea9ebe6e3d92e1c43677f83c885411f36f3
a480b779236ed620d6bc4c3cfee1c33f706b807646b80371adf23dd671f8cbf1749d13634498f34bd0eda40b27f4d5aabc8022b0a402d6154594c9479f5dd789
8675a01b2db95be7d8390d8c098ed9e73e9362c7ec07df9afe57904a74c0b255af0c04363af13ea9ebe6e3d92e1c4367c7b1f36bc7070856750ee609fa922fe0
05ad24d5c75c3ba02f37c6c116c17a2741bd5cdca80eee63b277fc8e549da069597dac58bbf10873efa5abf55b2b45dd6aac8c3f3fc75c59ad3980a271311bac
a480b779236ed6207041bb00b63cb248706b807646b80371323073213f1e2fd7661ad1b944336a5466eaeb9fc4cc8ae14ee62c3d2a89a19b67221ad3a3d98e25
a96d202ad039cd9fe73070a45f1d549c612cadd6d8bf7aab8f91b7aaee043a847df71b10d2b033eb61f5afe2c0e07e4fe2322f6aa701ef67090453ca045432da
05ad24d5c75c3ba03a1e0ee6bf72030b41bd5cdca80eee63b277fc8e549da06904ddad6ce290cd4a26f83ecad73ba275e2062e7287622af7ad3980a271311bac
05ad24d5c75c3ba0795e25737093ddb0a09057af10d335eab35c72284ce5578cbae953355029bce27393c6e681d34337da7cf9b2d5e2cca90faff0981b628680
a8c91e20f198ecd4612cadd6d8bf7aab8f91b7aaee043a847df71b10d2b033eb61f5afe2c0e07e4fe2322f6aa701ef674045d4ce2fc7d51cb75d73ea123e4795
19d3e057149a9eaa9e1ef3f0a695b75c0abfc569c2f155644e96ed625149d3941ae2c47eafc92f139cfa5b562ca7de2a8a90fc01a672c27723002aae0d64f085
95e245e913fb67e2ed857e222a29377bbb3d9bcfea5868d6d6bed56970aa1341b916da9973bf93f3d6ff68e9989d94bbc3145fb8a3c82536a8823c4510a90f48
d2e024ec2fa6c7a015a58fdf65dba68174c94f93c383e257329bbad98dbebae260382a1a745ad791ef34390d67e8f6dbd8390d8c098ed9e7c34aa30252bd7a39
19d3e057149a9eaa59143dd1466729a7706b807646b80371eeb4e309e96d52abf66ee1544740748dce5ec34e6f8ad1ca9bc729a9a2dec2fdca94dab7412625f8
3b190409a8e50651af399d32d282acb6187698f702a5f7e37d83db924c0dda782a1bc4fb00497eb1b1c09787e259d6ca575b610b22739caab9468eeec6a606db
05ad24d5c75c3ba0c779579ce2e9c1ae41bd5cdca80eee6382dc574e7e6a778c04ddad6ce290cd4af4b46847d93d629f898c1092330da4cc6594e2ecfdcb7f14
05ad24d5c75c3ba01e719926f5b01ab441bd5cdca80eee6382dc574e7e6a778cd818ef8e2fea6ee5c30a18ef2c85f085517cea7bd5b87a5e6594e2ecfdcb7f14
7ac8891e009d74fd0a39fc20f3751d71706b807646b80371d437a82567b6f9e65fcf0ef69a4dbc617f79ce11f22cd9b400d3e0b087c73744f5542b545b925d55
a480b779236ed6204b20a7c5c0c28062706b807646b80371d437a82567b6f9e6661ad1b944336a5466eaeb9fc4cc8ae19bb1e6305f8357548173bd81e88600e6
b49030fec72dc3ad1fb57e09c0b27d3e8251658c82eace44af8b78a678dcf492493360da93a4a36890bde3b176fca2e684af5cc592dce4582e5a5dd9cf154672
a480b779236ed620addaafdffeaeef73706b807646b80371003c45efd14d6b2a749d13634498f34bd0eda40b27f4d5aa3bd6f12e0a37a0e5f263d43d65828afd
af399d32d282acb6187698f702a5f7e37d83db924c0dda782a1bc4fb00497eb1b1c09787e259d6ca575b610b22739caac1654fa6c84628b03e28a523f4727718
a480b779236ed620495eaa8f38ee7192599bf13f0371d5b46db7238e80e0944f7c17ce4c30ccd56259accf73edb8140735ff8ef20c92e52abed779b4b6abb5df
d2e024ec2fa6c7a0b07794bd1944ada496b85ed0ed55ce969e64af4298966b45884449535f05d48a0709d1601f9c3e66187698f702a5f7e3aea36630531a679c
7ac8891e009d74fdf6ac43e363a1109596b85ed0ed55ce96d2b83b7cbacabe8868371ec60abd9f850039cabbdcd7c562710f626c2faf14a69ae02d340d146cdb
a480b779236ed6201f625d87cb26a35b599bf13f0371d5b4a5c382e006ab399ace5ec34e6f8ad1cafefacf9c99a1d693adf23dd671f8cbf136fb420f5a067a1e
a480b779236ed6205f51ba6f8e7829dc599bf13f0371d5b44f438008944209d2ac64f6a7dd2df7d778b54ce720b1001e9cfa5b562ca7de2a0140c3b3ae501594
886c8e9c93b9896cc2e58f54da9d08b41fb57e09c0b27d3e8251658c82eace44af8b78a678dcf492493360da93a4a36890bde3b176fca2e6a311b73976b7fe9b
2a76c18f665e8c27c702d572f128fcccb79f103ab8320bf391bdd0fe75dff7f10d2593f74dafae5a3870c4493755f699a6b1dba7059692f3d7acbf21c6552dd3
b0eb42ca922cce592fbfcc2b872ff946ed0de0b7d545fb1e749d13634498f34bfe72fbe30f969a29db52dae1d728d81d06b00d004d5f9d489e755c05ebb6da93
b5721a201da3a5888675a01b2db95be7d8390d8c098ed9e73e9362c7ec07df9afe57904a74c0b255af0c04363af13ea9ebe6e3d92e1c43677f83c885411f36f3
0b00c72b7c2c95cdc702d572f128fccc8b626419b4e6c78b7de4940d01b6073d02ad93d405ca8e11d8390d8c098ed9e73e9362c7ec07df9a6c244c1a4be6c4f1
627b74f539769aa4dd8a92673b2faf0a15b34c5814a5a6c28c935ce4ff2db815d8390d8c098ed9e73e9362c7ec07df9afe57904a74c0b255814938a8147e9dd1
bc0ab72d88996fb21b335ff666912215d63685e7bf23ea2362d7fc06aea0b62b612cadd6d8bf7aab8f91b7aaee043a847df71b10d2b033eb377111014bdaf4f6
04f5acd939422ec0957673035b26e32b5b0577b810d23d9ea3453ba7982d296d74bd7430dd962bc1513e842c7910945c519f5adb724f51ca57bae2730ee99e5a
6d35d8485846d699042874ea54597ccea35dc949b173b637f212259bd8dc8ab659211be83b0e7fda00fd5d9317f91d3777c222a28d59dfcdfcd71c853e559a96
240cf6a83072ff1adffad4255220698b58619e39e98588f2b1ad1c111ef6d5b8b01050fe6a09aaeb1fb57e09c0b27d3e8251658c82eace4450e38e8ceb4a24c6
$CDNENCFINISH
.ENDS TPS54672_AVG
*$
.subckt PWMVM_PWMVM_H1 1 2 3 4  
$CDNENCSTART
eee8c5c7a2bc4b01f045f303678664e7916da0bae22e8cb0bba041dd67c69ce448ea70148a9ac1670c8926c1ac5057c8ccfcd77bf87ca9dc9ae02d340d146cdb
17c62fcc2e77343525eb5cba2c02138281e39a03d5103a2817c62fcc2e7734350bd772829702380cd8390d8c098ed9e73e9362c7ec07df9a6c244c1a4be6c4f1
193b071cf0b92dedad4b9797dd4ba8f56d5435b876a13b8cd39f201f8a09b6e43bd7e4b9834b665f1b021646719704d5d1032bf8086203cfce773fd17861f4bf
$CDNENCFINISH
.ends PWMVM_PWMVM_H1
*$
.subckt d_d1 1 2
$CDNENCSTART
eee8c5c7a2bc4b01f045f303678664e7916da0bae22e8cb0bba041dd67c69ce448ea70148a9ac1670c8926c1ac5057c8ccfcd77bf87ca9dc9ae02d340d146cdb
1580a2664af5c9b71dffb53947c4a0503bd7e4b9834b665f1b021646719704d5d1032bf8086203cff0f36c3bb790f51d5798c902c412811ee96cece447c87331
0697746efb67a3a341e6e617f9adb744d8390d8c098ed9e73e9362c7ec07df9afe57904a74c0b255af0c04363af13ea9ebe6e3d92e1c43677f83c885411f36f3
f7a854a98d732f8b65b706867a9136e6612cadd6d8bf7aab8f91b7aaee043a847df71b10d2b033eb61f5afe2c0e07e4fe2322f6aa701ef67090453ca045432da
39c84b0c9f72e0078e024cbd033ee0af612cadd6d8bf7aab8f91b7aaee043a847df71b10d2b033eb61f5afe2c0e07e4fe2322f6aa701ef67090453ca045432da
0660a0f5c4a1d536aad0cae5ebf3019a6d9e274bf62facfafd5e213b948487b050b32b9ebdb26877e4fa66b8236683a76a9cddfe6dc1011d738e11c362705de5
bb2b3db9c7a19155759dbc4b888721533bd7e4b9834b665f1b021646719704d5d1032bf8086203cff0f36c3bb790f51d5798c902c412811ee96cece447c87331
$CDNENCFINISH
.ends d_d1
*$
.SUBCKT CESR IN OUT
+ PARAMs:  C=100u ESR=0.01 X=2 IC=0
$CDNENCSTART
eee8c5c7a2bc4b01f045f303678664e7916da0bae22e8cb0bba041dd67c69ce448ea70148a9ac1670c8926c1ac5057c8ccfcd77bf87ca9dc9ae02d340d146cdb
e1672f4adc297708d55f4e00a67c18c6187698f702a5f7e37d83db924c0dda782a1bc4fb00497eb1b1c09787e259d6ca575b610b22739caab9468eeec6a606db
103083d7a6d047eb2989a19c26e45d936ed2cf1dc7a2282a6d9e274bf62facfafd5e213b948487b050b32b9ebdb26877e4fa66b8236683a737c87af26437fcd1
$CDNENCFINISH
.ENDS CESR
*$
.SUBCKT LDCR IN OUT
+ PARAMs:  L=1u DCR=0.01 IC=0
$CDNENCSTART
eee8c5c7a2bc4b01f045f303678664e7916da0bae22e8cb0bba041dd67c69ce448ea70148a9ac1670c8926c1ac5057c8ccfcd77bf87ca9dc9ae02d340d146cdb
264144965b4befeddc5a1b22284dea7f2d4b99c571e6b6541fb57e09c0b27d3e8251658c82eace44af8b78a678dcf492493360da93a4a368ee0730c379ecfbc4
eca920dce3ff5fa4e99db6fbe6c19b3e1fb57e09c0b27d3e8251658c82eace44af8b78a678dcf492493360da93a4a36890bde3b176fca2e6a311b73976b7fe9b
$CDNENCFINISH
.ENDS LDCR
*$
